6
TITLE: Charge = 0 Dipole Norm = 0.0002 D [B3LYP/6-311++G(3df,2p)], Isotropic Polar = 25.141 au [B3LYP/6-31++G(d,p)], PolMat = 27.9568355,5.2515462,25.4638231,5.9586835,3.2470365,22.0024385 au [B3LYP/6-31++G(d,p)]
 H     0.000094     1.087030     0.000069
 H     0.827022    -0.486200     0.511153
 H    -1.792270    -0.215077    -1.108050
 H    -0.965325    -1.788300    -0.596994
 C     0.000000    -0.000000     0.000000
 C    -0.965307    -0.701277    -0.596799
