12
TITLE: Charge = 0 Dipole Norm = 2.3909 D [B3LYP/6-311++G(3df,2p)], Isotropic Polar = 53.0076 au [B3LYP/6-31++G(d,p)], PolMat = 43.1364122,2.2175822,61.561967,7.3365714,7.4363926,54.3244397 au [B3LYP/6-31++G(d,p)]
 H    -0.361257    -0.479348     0.927570
 H     1.016270    -0.376460    -0.197626
 H    -0.638224    -0.356281    -0.813021
 H     1.024460     1.944500     3.013730
 H     1.125220     0.484244     2.174590
 H     1.126880     3.933530     1.470870
 H    -0.123976     3.839220     0.350383
 C     0.000000     0.000000     0.000000
 C     0.439627     2.057270     1.056330
 N    -0.049521     1.450240     0.039123
 N     0.287066     3.441940     1.186560
 N     1.147300     1.492220     2.117070
