8
TITLE: Charge = 1 Dipole Norm = 2.1611 D [B3LYP/6-311++G(3df,2p)], Isotropic Polar = 18.6193 au [B3LYP/6-31++G(d,p)], PolMat = 19.1675342,0.9514789,18.7215812,0.0005323,0.000774,17.9686512 au [B3LYP/6-31++G(d,p)]
 H     1.483190     1.175990     0.954815
 H     0.969428     1.823850    -0.477410
 H     1.996920     0.528014    -0.477462
 H    -0.267008    -0.212393    -1.034600
 H     0.289355    -0.913753     0.517803
 H    -0.824048     0.490494     0.516871
 C     0.000000     0.000000     0.000000
 N     1.188150     0.942059    -0.000028
