5
TITLE: Charge = -1 Dipole Norm = 3.3337 D [B3LYP/6-311++G(3df,2p)], Isotropic Polar = 50.8121 au [B3LYP/6-31++G(d,p)], PolMat = 49.0791027,1.371975,47.0105797,5.2625471,2.6208191,56.346701 au [B3LYP/6-31++G(d,p)]
 H    -0.553476     0.859053    -0.409517
 H    -0.723141    -0.821424     0.119762
 H     0.720791    -0.315320    -0.770095
 C     0.000000     0.000000     0.000000
 S     0.837243     0.418286     1.596460
