3
TITLE: Charge = 0 Dipole Norm = 3.0444 D [B3LYP/6-311++G(3df,2p)], Isotropic Polar = 14.5123 au [B3LYP/6-31++G(d,p)], PolMat = 10.3241486,0.,10.3241486,0.,0.,22.8886251 au [B3LYP/6-31++G(d,p)]
 H     0.000000     0.000000    -1.070430
 C     0.000000     0.000000     0.000000
 N     0.000000     0.000000     1.157640
