9

H         -0.25846       -1.39457        0.20315
H         -0.25845        0.89508        0.93705
H         -0.35282        0.32681       -1.22866
H          2.70552       -0.33020        0.82112
C          1.07983       -0.06323       -0.01178
O          0.69997       -1.36488        0.29405
O          0.69997        0.81809        0.99376
O          0.60566        0.33662       -1.25926
O          2.47152       -0.04369       -0.07274
