13

H         -0.64249       -1.43694       -0.23600
H          0.78517       -2.08919        0.59728
H          0.79261       -1.84877       -1.16344
H         -0.64249        0.54104        1.20406
H          0.79262        1.55014        1.31112
H          0.78518       -0.05163        2.08072
H          2.79031       -0.44408       -1.01442
H          2.84305       -0.64218        0.75080
H          2.79031        0.97686        0.02010
C          0.45282       -1.42721       -0.21096
C          0.45283        0.51422        1.20250
C          2.41360       -0.04847       -0.06467
N          0.95115       -0.06204       -0.04606
