9

H         -0.51082       -0.79871       -1.12014
H          0.91359       -1.85751       -1.02927
H          0.91359       -0.43052       -2.11701
H          2.82744        0.63229        0.75717
H          2.88966        0.41656       -1.00574
H          2.88966       -1.01043        0.08200
C          0.58189       -0.82182       -1.15046
C          2.49916        0.00004       -0.07227
O          1.07810       -0.01444       -0.09127
