9

H         -0.53752        1.16605        1.33659
H          0.93565        2.10541        1.03635
H          0.93565        0.78860        2.24768
H          3.24783       -0.64609       -0.63336
H          3.14805       -0.27053        1.09632
H          3.14805        1.04629       -0.11500
C          0.55223        1.10946        1.27508
C          2.80579        0.03063        0.10230
S          1.00303       -0.07716       -0.01489
