7

H         -0.46140        0.77167        1.33876
H          0.86541        1.69658        1.21001
H          3.04843       -0.49825       -0.79441
H          2.96745       -0.48557        0.82601
N          0.55421        0.72693        1.27028
N          2.63279       -0.00199       -0.00757
S          0.99721       -0.08629       -0.08259
