10

H         -0.51305        1.48032       -0.99694
H          0.81902        1.16102       -1.85710
H         -0.48901       -1.33831       -0.90208
H          0.86747       -2.05748       -0.42466
H          3.03455        0.85757        0.27232
H          2.79124       -0.00482       -1.08296
N          0.47814        1.26910       -0.90496
N          0.50356       -1.16340       -0.75828
N          2.48550        0.09558       -0.11756
S          0.88165        0.12119        0.18434
