7

H         -0.37777        0.17457        1.59211
H         -0.38530        1.44507       -0.91394
H          2.91341       -0.55133        0.51926
O          0.59327        0.14658        1.44225
O          0.53776        1.40602       -0.58736
O          2.49310        0.17626        0.00348
S          0.92099       -0.06900       -0.10688
