10
TITLE: Charge = 0 Dipole Norm = 0 D [B3LYP/6-311++G(3df,2p)], Isotropic Polar = 54.828 au [B3LYP/6-31++G(d,p)], PolMat = 35.0612138,4.1099757,86.3498129,3.9630028,9.9918825,43.0728499 au [B3LYP/6-31++G(d,p)]
 H    -0.351220    -0.569349    -0.854478
 H     0.352675    -0.567438     0.858103
 H    -0.361198     1.877590    -0.878920
 H     0.819265     1.630810     1.993250
 H     0.809423     4.077750     1.968740
 H     0.105552     4.075840     0.256154
 C     0.000000     0.000000     0.000000
 C     0.000027     1.343280    -0.000037
 C     0.458095     2.165120     1.114340
 C     0.458189     3.508400     1.114270
