7

H         -0.78843       -0.30784       -1.40737
H         -0.86545       -1.10499        0.54204
H          2.97797        0.95399       -0.98688
C          1.22395       -0.34039       -0.20247
S          0.45552        0.09880       -1.69084
S          0.38097       -1.24273        1.01021
S          2.86129        0.15173        0.08038
