7

H         -0.42120       -0.25631       -1.11984
H          0.92972       -1.09662       -1.41041
H          2.67335        0.25322        1.00970
H          2.64774        0.72418       -0.53726
N          0.58234       -0.14918       -1.25435
N          2.44326       -0.06947        0.07182
O          1.01432        0.02960        0.09987
