13

H         -0.62171       -1.66807        0.16732
H          0.90028       -1.97253        1.04752
H          0.82863       -2.17571       -0.72377
H         -0.62171        0.75533        1.58520
H          0.82864        1.78086        1.59112
H          0.90028        0.13720        2.28187
H          3.12112       -0.55471       -0.71441
H          2.89604       -0.56134        1.05567
H          3.12112        0.97846        0.18260
C          0.46675       -1.58474        0.12101
C          0.46676        0.75488        1.48986
C          2.67998       -0.01978        0.13004
S          0.90301        0.14741       -0.15571
