7

N    1.403821711   4.984669356   5.778187450
H    1.728052950   4.167157819   6.284695557
C    0.021216032   4.745209294   5.311408747
H   -0.335911807   5.627677949   4.788216781
H    0.020081133   3.912573197   4.613608583
H   -0.667506409   4.517829881   6.121748810
H    1.391874577   5.727940510   6.468932143
