10

C    4.999742982   5.656478915   0.500699101
C    4.164862142   5.017473257   1.379027829
N    3.939509304   5.868794127   2.428963225
C    4.608365297   6.999915738   2.218084680
N    5.256490848   6.884805521   1.050371362
H    3.728431744   4.037328478   1.328268100
H    3.316944545   5.657789713   3.312404450
H    4.631794200   7.858375587   2.863794077
H    5.416541405   5.343987339  -0.438462413
H    5.844006700   7.599873278   0.647217331
